12
test2d.xyz	Energy:       0.0000000
  C        1.21249        0.69142       -0.00000
  C        0.00746        1.39576        0.00000
  C       -1.20503        0.70434        0.00000
  C       -1.21249       -0.69142        0.00000
  C       -0.00746       -1.39576       -0.00000
  C        1.20503       -0.70434       -0.00000
  H        2.15464        1.22868       -0.00000
  H        0.01325        2.48031        0.00000
  H       -2.14138        1.25163       -0.00000
  H       -2.15464       -1.22868        0.00000
  H       -0.01325       -2.48031       -0.00000
  H        2.14138       -1.25163        0.00000
