25
test3d.gpr	Energy:       0.0000000
  C        1.50319       -0.12273        1.06754
  C        1.24993       -1.35143        0.16005
  C       -0.14225       -1.04800       -0.44645
  C       -1.15948       -1.25550        0.70258
  C       -0.90621       -0.02681        1.61007
  C        0.22302        0.72413        0.86241
  C       -0.12157        0.48748       -0.62609
  H        2.39809        0.43095        0.74790
  H        1.63731       -0.41701        2.11933
  H        1.25160       -2.28829        0.73724
  H        2.01449       -1.43007       -0.62661
  H       -0.36889       -1.63537       -1.34911
  H       -0.98486       -2.19924        1.24083
  H       -2.19067       -1.26264        0.32028
  H       -0.59914       -0.32796        2.62293
  H       -1.80708        0.59837        1.69480
  H        0.33407        1.77502        1.16975
  C        0.94954        1.00453       -1.62507
  C       -1.47464        1.10104       -1.07921
  H        1.96921        0.65191       -1.43222
  H        0.96310        2.10408       -1.59348
  H        0.67087        0.68635       -2.64060
  H       -1.39013        2.19777       -1.06360
  H       -2.33713        0.82337       -0.46254
  H       -1.68235        0.78004       -2.11071
